data/p13uhs0_1247/DSSfiles/p13uhs0_1247--p13udt15681/Loads.dss
New Load.load_p13ulv3688_1 conn=wye bus1=p13ulv3688.1 kV=0.12 Vminpu=0.8 Vmaxpu=1.2 model=1 kW=8.2245280367811 kvar=4.561798918625033 Phases=1 yearly=res_kw_8344_pu

New Load.load_p13ulv3688_2 conn=wye bus1=p13ulv3688.2 kV=0.12 Vminpu=0.8 Vmaxpu=1.2 model=1 kW=8.2245280367811 kvar=4.561798918625033 Phases=1 yearly=res_kw_8344_pu

New Load.load_p13ulv3690_1 conn=wye bus1=p13ulv3690.1 kV=0.12 Vminpu=0.8 Vmaxpu=1.2 model=1 kW=3.965811262619282 kvar=1.179887620308166 Phases=1 yearly=res_kw_3277_pu

New Load.load_p13ulv3690_2 conn=wye bus1=p13ulv3690.2 kV=0.12 Vminpu=0.8 Vmaxpu=1.2 model=1 kW=3.965811262619282 kvar=1.179887620308166 Phases=1 yearly=res_kw_3277_pu

New Load.load_p13ulv3691_1 conn=wye bus1=p13ulv3691.1 kV=0.12 Vminpu=0.8 Vmaxpu=1.2 model=1 kW=2.07461122432576 kvar=0.5577119778240083 Phases=1 yearly=res_kw_10186_pu

New Load.load_p13ulv3691_2 conn=wye bus1=p13ulv3691.2 kV=0.12 Vminpu=0.8 Vmaxpu=1.2 model=1 kW=2.07461122432576 kvar=0.5577119778240083 Phases=1 yearly=res_kw_10186_pu

New Load.load_p13ulv3692_1 conn=wye bus1=p13ulv3692.1 kV=0.12 Vminpu=0.8 Vmaxpu=1.2 model=1 kW=6.016101116752196 kvar=0.4002351854880724 Phases=1 yearly=res_kw_9190_pu

New Load.load_p13ulv3692_2 conn=wye bus1=p13ulv3692.2 kV=0.12 Vminpu=0.8 Vmaxpu=1.2 model=1 kW=6.016101116752196 kvar=0.4002351854880724 Phases=1 yearly=res_kw_9190_pu

New Load.load_p13ulv3693_1 conn=wye bus1=p13ulv3693.1 kV=0.12 Vminpu=0.8 Vmaxpu=1.2 model=1 kW=3.05276934607919 kvar=1.2252585647321785 Phases=1 yearly=res_kw_10713_pu

New Load.load_p13ulv3693_2 conn=wye bus1=p13ulv3693.2 kV=0.12 Vminpu=0.8 Vmaxpu=1.2 model=1 kW=3.05276934607919 kvar=1.2252585647321785 Phases=1 yearly=res_kw_10713_pu

New Load.load_p13ulv3694_1 conn=wye bus1=p13ulv3694.1 kV=0.12 Vminpu=0.8 Vmaxpu=1.2 model=1 kW=4.649386792014117 kvar=1.3889237958064855 Phases=1 yearly=res_kw_8893_pu

New Load.load_p13ulv3694_2 conn=wye bus1=p13ulv3694.2 kV=0.12 Vminpu=0.8 Vmaxpu=1.2 model=1 kW=4.649386792014117 kvar=1.3889237958064855 Phases=1 yearly=res_kw_8893_pu

New Load.load_p13ulv3695_1 conn=wye bus1=p13ulv3695.1 kV=0.12 Vminpu=0.8 Vmaxpu=1.2 model=1 kW=10.151921073598864 kvar=1.3992601170167323 Phases=1 yearly=res_kw_12102_pu

New Load.load_p13ulv3695_2 conn=wye bus1=p13ulv3695.2 kV=0.12 Vminpu=0.8 Vmaxpu=1.2 model=1 kW=10.151921073598864 kvar=1.3992601170167323 Phases=1 yearly=res_kw_12102_pu

New Load.load_p13ulv3696_1 conn=wye bus1=p13ulv3696.1 kV=0.12 Vminpu=0.8 Vmaxpu=1.2 model=1 kW=5.2844394308809175 kvar=1.0522712324848236 Phases=1 yearly=res_kw_4549_pu

New Load.load_p13ulv3696_2 conn=wye bus1=p13ulv3696.2 kV=0.12 Vminpu=0.8 Vmaxpu=1.2 model=1 kW=5.2844394308809175 kvar=1.0522712324848236 Phases=1 yearly=res_kw_4549_pu

New Load.load_p13ulv3698_1 conn=wye bus1=p13ulv3698.1 kV=0.12 Vminpu=0.8 Vmaxpu=1.2 model=1 kW=4.653854127758627 kvar=3.371180794849531 Phases=1 yearly=res_kw_9185_pu

New Load.load_p13ulv3698_2 conn=wye bus1=p13ulv3698.2 kV=0.12 Vminpu=0.8 Vmaxpu=1.2 model=1 kW=4.653854127758627 kvar=3.371180794849531 Phases=1 yearly=res_kw_9185_pu

New Load.load_p13ulv3699_1 conn=wye bus1=p13ulv3699.1 kV=0.12 Vminpu=0.8 Vmaxpu=1.2 model=1 kW=8.539340903420044 kvar=1.6141936592436177 Phases=1 yearly=res_kw_1573_pu

New Load.load_p13ulv3699_2 conn=wye bus1=p13ulv3699.2 kV=0.12 Vminpu=0.8 Vmaxpu=1.2 model=1 kW=8.539340903420044 kvar=1.6141936592436177 Phases=1 yearly=res_kw_1573_pu

New Load.load_p13ulv28947 conn=wye bus1=p13ulv28947.1.2.3 kV=0.48 Vminpu=0.8 Vmaxpu=1.2 model=1 kW=26.835354481671754 kvar=9.893633170474581 Phases=3 yearly=res_kw_1456_pu

New Load.load_p13ulv28948_1 conn=wye bus1=p13ulv28948.1 kV=0.12 Vminpu=0.8 Vmaxpu=1.2 model=1 kW=33.3366905969107 kvar=4.901046192732323 Phases=1 yearly=res_kw_5121_pu

New Load.load_p13ulv28948_2 conn=wye bus1=p13ulv28948.2 kV=0.12 Vminpu=0.8 Vmaxpu=1.2 model=1 kW=33.3366905969107 kvar=4.901046192732323 Phases=1 yearly=res_kw_5121_pu

New Load.load_p13ulv28949_1 conn=wye bus1=p13ulv28949.1 kV=0.12 Vminpu=0.8 Vmaxpu=1.2 model=1 kW=3.2887112128735323 kvar=0.8179021603182046 Phases=1 yearly=res_kw_119_pu

New Load.load_p13ulv28949_2 conn=wye bus1=p13ulv28949.2 kV=0.12 Vminpu=0.8 Vmaxpu=1.2 model=1 kW=3.2887112128735323 kvar=0.8179021603182046 Phases=1 yearly=res_kw_119_pu

New Load.load_p13ulv28950_1 conn=wye bus1=p13ulv28950.1 kV=0.12 Vminpu=0.8 Vmaxpu=1.2 model=1 kW=3.5550713895719452 kvar=0.8002362893361499 Phases=1 yearly=res_kw_6237_pu

New Load.load_p13ulv28950_2 conn=wye bus1=p13ulv28950.2 kV=0.12 Vminpu=0.8 Vmaxpu=1.2 model=1 kW=3.5550713895719452 kvar=0.8002362893361499 Phases=1 yearly=res_kw_6237_pu

New Load.load_p13ulv28951_1 conn=wye bus1=p13ulv28951.1 kV=0.12 Vminpu=0.8 Vmaxpu=1.2 model=1 kW=2.7071371409921654 kvar=1.0605988772240902 Phases=1 yearly=res_kw_10262_pu

New Load.load_p13ulv28951_2 conn=wye bus1=p13ulv28951.2 kV=0.12 Vminpu=0.8 Vmaxpu=1.2 model=1 kW=2.7071371409921654 kvar=1.0605988772240902 Phases=1 yearly=res_kw_10262_pu

...